@<TRIPOS>MOLECULE
Compound
  187   198     1     0     0
SMALL
No Charge or Current Charge


@<TRIPOS>ATOM
      1 C           -1.3900     1.6860    -0.1240 ca         1 UNL       0.044400
      2 C1          -0.6940     0.4690    -0.0040 ca         1 UNL       0.077300
      3 C2           0.7430     0.4650     0.0060 ca         1 UNL       0.077300
      4 C3           1.4460     1.6780     0.1290 ca         1 UNL       0.044400
      5 C4           0.7450     2.9270     0.0990 ca         1 UNL       0.110800
      6 C5          -0.6830     2.9320    -0.0910 ca         1 UNL       0.110800
      7 N           -1.2070     4.1430    -0.1590 nc         1 UNL      -0.190100
      8 S            0.0380     5.2000     0.0060 ss         1 UNL       0.116500
      9 N1           1.2770     4.1350     0.1690 nc         1 UNL      -0.190100
     10 C6          -2.7630     1.3620    -0.1380 cd         1 UNL       0.048700
     11 C7          -2.8620    -0.0140     0.0080 cc         1 UNL       0.071900
     12 N2          -1.6030    -0.5690     0.1000 na         1 UNL      -0.336500
     13 C8           2.8170     1.3450     0.1420 cd         1 UNL       0.048700
     14 C9           2.9080    -0.0310    -0.0080 cc         1 UNL       0.071900
     15 N3           1.6460    -0.5780    -0.1010 na         1 UNL      -0.336500
     16 C10         -4.2010    -0.4690     0.0680 cc         1 UNL       0.051300
     17 C11         -5.0930     0.5970    -0.0520 cd         1 UNL       0.032800
     18 S1          -4.3040     2.1600    -0.2290 ss         1 UNL      -0.085100
     19 C12          4.2440    -0.4930    -0.0680 cc         1 UNL       0.051300
     20 C13          5.1430     0.5680     0.0540 cd         1 UNL       0.032800
     21 S2           4.3620     2.1340     0.2350 ss         1 UNL      -0.085100
     22 C14         -6.4420     0.2130    -0.0210 cd         1 UNL      -0.018800
     23 C15         -6.5710    -1.1770     0.1360 cc         1 UNL       0.017800
     24 S3          -4.9990    -1.9820     0.2310 ss         1 UNL      -0.085900
     25 C16          6.4890     0.1760     0.0220 cd         1 UNL      -0.018800
     26 C17          6.6100    -1.2150    -0.1380 cc         1 UNL       0.017800
     27 S4           5.0340    -2.0100    -0.2350 ss         1 UNL      -0.085900
     28 C18         -7.8570    -1.7740     0.1890 ce         1 UNL      -0.036200
     29 C19         -8.3210    -3.0550     0.3370 cd         1 UNL       0.033000
     30 C20          7.8930    -1.8190    -0.1930 ce         1 UNL      -0.036200
     31 C21          8.3500    -3.1010    -0.3430 cd         1 UNL       0.033000
     32 C22         -1.3830    -1.8870     0.6770 c3         1 UNL       0.026800
     33 C23          1.4180    -1.8930    -0.6800 c3         1 UNL       0.026800
     34 C24          7.6380     1.1350     0.1430 c3         1 UNL      -0.025500
     35 C25         -7.5860     1.1790    -0.1400 c3         1 UNL      -0.025500
     36 C26         -9.7310    -3.4670     0.3560 cd         1 UNL       0.021500
     37 C27         -9.7520    -4.9390     0.5700 ca         1 UNL      -0.001600
     38 C28         -8.4370    -5.4000     0.6670 ca         1 UNL       0.032900
     39 C29         -7.4970    -4.2670     0.5230 c          1 UNL       0.194500
     40 C30          9.7570    -3.5210    -0.3640 cd         1 UNL       0.021500
     41 C31          9.7700    -4.9930    -0.5810 ca         1 UNL      -0.001600
     42 C32          8.4520    -5.4470    -0.6790 ca         1 UNL       0.032900
     43 C33          7.5180    -4.3080    -0.5320 c          1 UNL       0.194500
     44 C34         -8.1160    -6.7320     0.8680 ca         1 UNL      -0.012200
     45 C35         -9.1650    -7.6260     0.9730 ca         1 UNL       0.159100
     46 C36        -10.4890    -7.1820     0.8780 ca         1 UNL       0.159000
     47 C37        -10.8060    -5.8490     0.6770 ca         1 UNL      -0.015100
     48 C38          8.1230    -6.7770    -0.8830 ca         1 UNL      -0.012200
     49 C39          9.1670    -7.6760    -0.9910 ca         1 UNL       0.159100
     50 C40         10.4930    -7.2400    -0.8950 ca         1 UNL       0.159000
     51 C41         10.8180    -5.9090    -0.6900 ca         1 UNL      -0.015100
     52 O           -6.2820    -4.3500     0.5570 o          1 UNL      -0.286600
     53 O1           6.3030    -4.3840    -0.5670 o          1 UNL      -0.286600
     54 F          -11.4610    -8.0830     0.9850 f          1 UNL      -0.202500
     55 F1          -8.9410    -8.9220     1.1670 f          1 UNL      -0.202500
     56 F2           8.9360    -8.9700    -1.1880 f          1 UNL      -0.202500
     57 F3          11.4610    -8.1460    -1.0050 f          1 UNL      -0.202500
     58 C42        -10.8500    -2.6890     0.2030 ce         1 UNL       0.136500
     59 C43        -12.1800    -3.2160     0.2390 cg         1 UNL       0.110800
     60 N4         -13.2700    -3.6130     0.2630 n1         1 UNL      -0.190100
     61 C44        -10.8190    -1.2750    -0.0110 cg         1 UNL       0.110800
     62 N5         -10.8230    -0.1270    -0.1840 n1         1 UNL      -0.190100
     63 C45         10.8810    -2.7510    -0.2090 ce         1 UNL       0.136500
     64 C46         10.8580    -1.3370     0.0080 cg         1 UNL       0.110800
     65 N6          10.8680    -0.1900     0.1850 n1         1 UNL      -0.190100
     66 C47         12.2070    -3.2850    -0.2460 cg         1 UNL       0.110800
     67 N7          13.2950    -3.6890    -0.2710 n1         1 UNL      -0.190100
     68 H           -8.6260    -1.0180     0.0870 ha         1 UNL       0.063600
     69 H1           8.6660    -1.0670    -0.0890 ha         1 UNL       0.063600
     70 H2          -0.3320    -2.1580     0.5780 h1         1 UNL       0.049500
     71 H3          -2.0070    -2.6500     0.2040 h1         1 UNL       0.049500
     72 H4           0.3950    -2.2100    -0.4780 h1         1 UNL       0.049500
     73 H5           2.1180    -2.6380    -0.2930 h1         1 UNL       0.049500
     74 H6           8.2740     1.1190    -0.7470 hc         1 UNL       0.031400
     75 H7           8.2770     0.8940     0.9980 hc         1 UNL       0.031400
     76 H8          -8.2210     1.1640     0.7500 hc         1 UNL       0.031400
     77 H9          -8.2250     0.9440    -0.9950 hc         1 UNL       0.031400
     78 H10         -7.0860    -7.0620     0.9400 ha         1 UNL       0.065400
     79 H11        -11.8500    -5.5780     0.6110 ha         1 UNL       0.065300
     80 H12          7.0910    -7.1000    -0.9560 ha         1 UNL       0.065400
     81 H13         11.8640    -5.6440    -0.6240 ha         1 UNL       0.065300
     82 C48         -1.7160    -1.8360     2.1790 c3         1 UNL      -0.023300
     83 H14         -1.7710    -0.8170     2.4980 hc         1 UNL       0.031800
     84 C49         -0.6150    -2.5640     2.9740 c3         1 UNL      -0.048600
     85 H15         -0.5050    -3.5600     2.6000 hc         1 UNL       0.026800
     86 H16          0.3100    -2.0380     2.8650 hc         1 UNL       0.026800
     87 C50         -1.0040    -2.6140     4.4630 c3         1 UNL      -0.053000
     88 H17         -1.2260    -1.6260     4.8070 hc         1 UNL       0.026500
     89 H18         -1.8670    -3.2360     4.5850 hc         1 UNL       0.026500
     90 C51          0.1660    -3.1930     5.2800 c3         1 UNL      -0.055900
     91 H19          0.4000    -4.1730     4.9220 hc         1 UNL       0.026300
     92 H20          1.0220    -2.5600     5.1740 hc         1 UNL       0.026300
     93 C52         -0.2350    -3.2700     6.7650 c3         1 UNL      -0.065300
     94 H21         -1.0400    -3.9640     6.8820 hc         1 UNL       0.023000
     95 H22          0.6040    -3.5970     7.3440 hc         1 UNL       0.023000
     96 H23         -0.5460    -2.3030     7.1020 hc         1 UNL       0.023000
     97 C53          1.5880    -1.8020    -2.2080 c3         1 UNL      -0.023300
     98 H24          1.5690    -0.7750    -2.5080 hc         1 UNL       0.031800
     99 C54          0.4390    -2.5600    -2.8990 c3         1 UNL      -0.048600
    100 H25          0.4320    -3.5770    -2.5660 hc         1 UNL       0.026800
    101 H26         -0.4930    -2.0970    -2.6510 hc         1 UNL       0.026800
    102 C55          0.6430    -2.5210    -4.4250 c3         1 UNL      -0.053000
    103 H27          0.7750    -1.5070    -4.7410 hc         1 UNL       0.026500
    104 H28          1.5100    -3.0910    -4.6840 hc         1 UNL       0.026500
    105 C56         -0.5920    -3.1200    -5.1230 c3         1 UNL      -0.055900
    106 H29         -0.7380    -4.1260    -4.7890 hc         1 UNL       0.026300
    107 H30         -1.4560    -2.5360    -4.8820 hc         1 UNL       0.026300
    108 C57         -0.3750    -3.1110    -6.6470 c3         1 UNL      -0.065300
    109 H31          0.4380    -3.7600    -6.8960 hc         1 UNL       0.023000
    110 H32         -1.2640    -3.4510    -7.1360 hc         1 UNL       0.023000
    111 H33         -0.1490    -2.1160    -6.9690 hc         1 UNL       0.023000
    112 C58         -3.0700    -2.5260     2.4290 c3         1 UNL      -0.051400
    113 H34         -3.5010    -2.1490     3.3330 hc         1 UNL       0.026600
    114 H35         -3.7280    -2.3270     1.6090 hc         1 UNL       0.026600
    115 C59         -2.8560    -4.0460     2.5570 c3         1 UNL      -0.065000
    116 H36         -2.9210    -4.3300     3.5870 hc         1 UNL       0.023000
    117 H37         -3.6080    -4.5610     1.9970 hc         1 UNL       0.023000
    118 H38         -1.8890    -4.3030     2.1780 hc         1 UNL       0.023000
    119 C60          2.9340    -2.4300    -2.6140 c3         1 UNL      -0.051400
    120 H39          3.2530    -2.0180    -3.5480 hc         1 UNL       0.026600
    121 H40          3.6670    -2.2190    -1.8630 hc         1 UNL       0.026600
    122 C61          2.7680    -3.9540    -2.7550 c3         1 UNL      -0.065000
    123 H41          2.7360    -4.2150    -3.7920 hc         1 UNL       0.023000
    124 H42          3.5950    -4.4480    -2.2890 hc         1 UNL       0.023000
    125 H43          1.8580    -4.2590    -2.2820 hc         1 UNL       0.023000
    126 C62          7.1260     2.5750     0.3300 c3         1 UNL      -0.049000
    127 H44          6.5440     2.8600    -0.5210 hc         1 UNL       0.026800
    128 H45          6.5200     2.6270     1.2110 hc         1 UNL       0.026800
    129 C63          8.3250     3.5320     0.4750 c3         1 UNL      -0.052800
    130 H46          8.8980     3.2580     1.3360 hc         1 UNL       0.026500
    131 H47          8.9400     3.4670    -0.3980 hc         1 UNL       0.026500
    132 C64          7.8130     4.9750     0.6370 c3         1 UNL      -0.053000
    133 H48          7.2430     5.2500    -0.2260 hc         1 UNL       0.026500
    134 H49          7.1950     5.0390     1.5080 hc         1 UNL       0.026500
    135 C65          9.0120     5.9310     0.7860 c3         1 UNL      -0.053100
    136 H50          9.5820     5.6550     1.6480 hc         1 UNL       0.026500
    137 H51          9.6290     5.8670    -0.0860 hc         1 UNL       0.026500
    138 C66          8.5000     7.3740     0.9480 c3         1 UNL      -0.053100
    139 H52          7.8810     7.4370     1.8190 hc         1 UNL       0.026500
    140 H53          7.9310     7.6500     0.0850 hc         1 UNL       0.026500
    141 C67          9.6980     8.3290     1.1010 c3         1 UNL      -0.053100
    142 H54         10.2670     8.0530     1.9640 hc         1 UNL       0.026500
    143 H55         10.3170     8.2660     0.2300 hc         1 UNL       0.026500
    144 C68          9.1870     9.7730     1.2630 c3         1 UNL      -0.053100
    145 H56          8.5670     9.8360     2.1340 hc         1 UNL       0.026500
    146 H57          8.6180    10.0490     0.4000 hc         1 UNL       0.026500
    147 C69         10.3850    10.7280     1.4150 c3         1 UNL      -0.053300
    148 H58         10.9540    10.4520     2.2780 hc         1 UNL       0.026500
    149 H59         11.0040    10.6650     0.5450 hc         1 UNL       0.026500
    150 C70          9.8730    12.1710     1.5780 c3         1 UNL      -0.055900
    151 H60          9.2550    12.2340     2.4490 hc         1 UNL       0.026300
    152 H61          9.3040    12.4480     0.7160 hc         1 UNL       0.026300
    153 C71         11.0720    13.1270     1.7300 c3         1 UNL      -0.065300
    154 H62         10.7160    14.1300     1.8430 hc         1 UNL       0.023000
    155 H63         11.6410    12.8510     2.5930 hc         1 UNL       0.023000
    156 H64         11.6900    13.0640     0.8590 hc         1 UNL       0.023000
    157 C72         -7.0650     2.6170    -0.3230 c3         1 UNL      -0.049000
    158 H65         -6.4810     2.8960     0.5280 hc         1 UNL       0.026800
    159 H66         -6.4590     2.6670    -1.2040 hc         1 UNL       0.026800
    160 C73         -8.2580     3.5800    -0.4660 c3         1 UNL      -0.052800
    161 H67         -8.8330     3.3110    -1.3270 hc         1 UNL       0.026500
    162 H68         -8.8730     3.5170     0.4080 hc         1 UNL       0.026500
    163 C74         -7.7380     5.0210    -0.6250 c3         1 UNL      -0.053000
    164 H69         -7.1660     5.2910     0.2370 hc         1 UNL       0.026500
    165 H70         -7.1210     5.0830    -1.4970 hc         1 UNL       0.026500
    166 C75         -8.9310     5.9840    -0.7720 c3         1 UNL      -0.053100
    167 H71         -9.5490     5.9210     0.0990 hc         1 UNL       0.026500
    168 H72         -9.5030     5.7140    -1.6360 hc         1 UNL       0.026500
    169 C76         -8.4110     7.4240    -0.9310 c3         1 UNL      -0.053100
    170 H73         -7.8420     7.6960    -0.0670 hc         1 UNL       0.026500
    171 H74         -7.7910     7.4860    -1.8010 hc         1 UNL       0.026500
    172 C77         -9.6040     8.3870    -1.0830 c3         1 UNL      -0.053100
    173 H75        -10.1740     8.1150    -1.9480 hc         1 UNL       0.026500
    174 H76        -10.2250     8.3260    -0.2140 hc         1 UNL       0.026500
    175 C78         -9.0840     9.8270    -1.2430 c3         1 UNL      -0.053100
    176 H77         -8.5160    10.0990    -0.3790 hc         1 UNL       0.026500
    177 H78         -8.4630     9.8880    -2.1120 hc         1 UNL       0.026500
    178 C79        -10.2770    10.7890    -1.3970 c3         1 UNL      -0.053300
    179 H79        -10.8460    10.5170    -2.2610 hc         1 UNL       0.026500
    180 H80        -10.8980    10.7290    -0.5280 hc         1 UNL       0.026500
    181 C80         -9.7570    12.2300    -1.5570 c3         1 UNL      -0.055900
    182 H81         -9.1890    12.5020    -0.6920 hc         1 UNL       0.026300
    183 H82         -9.1360    12.2900    -2.4260 hc         1 UNL       0.026300
    184 C81        -10.9500    13.1920    -1.7110 c3         1 UNL      -0.065300
    185 H83        -10.5890    14.1930    -1.8230 hc         1 UNL       0.023000
    186 H84        -11.5180    12.9200    -2.5760 hc         1 UNL       0.023000
    187 H85        -11.5710    13.1320    -0.8420 hc         1 UNL       0.023000
@<TRIPOS>BOND
     1     2     1 ar
     2    10     1 1
     3     6     1 ar
     4     3     2 ar
     5    12     2 1
     6    11    10 2
     7    18    10 1
     8     5     6 ar
     9     7     6 2
    10     4     3 ar
    11    15     3 1
    12    13     4 1
    13     5     4 ar
    14    14    13 2
    15    21    13 1
    16     9     5 2
    17    16    11 1
    18    12    11 1
    19    17    16 2
    20    24    16 1
    21    19    14 1
    22    15    14 1
    23    20    19 2
    24    27    19 1
    25    22    17 1
    26    18    17 1
    27    23    22 2
    28    35    22 1
    29    25    20 1
    30    21    20 1
    31    26    25 2
    32    34    25 1
    33    28    23 1
    34    24    23 1
    35   157    35 1
    36    77    35 1
    37    76    35 1
    38    29    28 2
    39    68    28 1
    40    30    26 1
    41    27    26 1
    42   126    34 1
    43    74    34 1
    44    75    34 1
    45    31    30 2
    46    69    30 1
    47    36    29 1
    48    39    29 1
    49    58    36 2
    50    37    36 1
    51    38    39 1
    52    52    39 2
    53    40    31 1
    54    43    31 1
    55    63    40 2
    56    41    40 1
    57    42    43 1
    58    53    43 2
    59    82    32 1
    60    70    32 1
    61    71    32 1
    62    12    32 1
    63   112    82 1
    64    84    82 1
    65    83    82 1
    66    97    33 1
    67    72    33 1
    68    73    33 1
    69    15    33 1
    70   119    97 1
    71    99    97 1
    72    98    97 1
    73   129   126 1
    74   127   126 1
    75   128   126 1
    76   160   157 1
    77   158   157 1
    78   159   157 1
    79    61    58 1
    80    59    58 1
    81    47    37 ar
    82    38    37 ar
    83    46    47 ar
    84    79    47 1
    85    44    38 ar
    86    45    44 ar
    87    78    44 1
    88    66    63 1
    89    64    63 1
    90    51    41 ar
    91    42    41 ar
    92    50    51 ar
    93    81    51 1
    94    48    42 ar
    95    49    48 ar
    96    80    48 1
    97    46    45 ar
    98    55    45 1
    99    54    46 1
   100    50    49 ar
   101    56    49 1
   102    57    50 1
   103    62    61 3
   104    60    59 3
   105    67    66 3
   106    65    64 3
   107   115   112 1
   108   114   112 1
   109   113   112 1
   110    87    84 1
   111    85    84 1
   112    86    84 1
   113    90    87 1
   114    88    87 1
   115    89    87 1
   116    93    90 1
   117    91    90 1
   118    92    90 1
   119    94    93 1
   120    96    93 1
   121    95    93 1
   122   122   119 1
   123   120   119 1
   124   121   119 1
   125   102    99 1
   126   101    99 1
   127   100    99 1
   128   105   102 1
   129   104   102 1
   130   103   102 1
   131   108   105 1
   132   106   105 1
   133   107   105 1
   134   109   108 1
   135   111   108 1
   136   110   108 1
   137   117   115 1
   138   118   115 1
   139   116   115 1
   140   123   122 1
   141   125   122 1
   142   124   122 1
   143   132   129 1
   144   131   129 1
   145   130   129 1
   146   135   132 1
   147   134   132 1
   148   133   132 1
   149   138   135 1
   150   136   135 1
   151   137   135 1
   152   141   138 1
   153   140   138 1
   154   139   138 1
   155   144   141 1
   156   142   141 1
   157   143   141 1
   158   147   144 1
   159   146   144 1
   160   145   144 1
   161   150   147 1
   162   149   147 1
   163   148   147 1
   164   153   150 1
   165   152   150 1
   166   151   150 1
   167   156   153 1
   168   155   153 1
   169   154   153 1
   170   163   160 1
   171   161   160 1
   172   162   160 1
   173   166   163 1
   174   164   163 1
   175   165   163 1
   176   169   166 1
   177   167   166 1
   178   168   166 1
   179   172   169 1
   180   170   169 1
   181   171   169 1
   182   175   172 1
   183   174   172 1
   184   173   172 1
   185   178   175 1
   186   176   175 1
   187   177   175 1
   188   181   178 1
   189   179   178 1
   190   180   178 1
   191   184   181 1
   192   183   181 1
   193   182   181 1
   194   187   184 1
   195   186   184 1
   196   185   184 1
   197     8     9 1
   198     8     7 1
@<TRIPOS>SUBSTRUCTURE
     1 UNL         1 TEMP              0 ****  ****    0 ROOT
