@<TRIPOS>MOLECULE
RES
187 198 1 0 1
SMALL
NO_CHARGES
@<TRIPOS>CRYSIN
  100.0000   100.0000   100.0000    90.0000    90.0000    90.0000  1  1
@<TRIPOS>ATOM
       1 c           -1.3900     1.6860    -0.1240 c             1 RES
       2 c           -0.6940     0.4690    -0.0040 c             1 RES
       3 c            0.7430     0.4650     0.0060 c             1 RES
       4 c            1.4460     1.6780     0.1290 c             1 RES
       5 c            0.7450     2.9270     0.0990 c             1 RES
       6 c           -0.6830     2.9320    -0.0910 c             1 RES
       7 n           -1.2070     4.1430    -0.1590 n             1 RES
       8 s            0.0380     5.2000     0.0060 s             1 RES
       9 n            1.2770     4.1350     0.1690 n             1 RES
      10 c           -2.7630     1.3620    -0.1380 c             1 RES
      11 c           -2.8620    -0.0140     0.0080 c             1 RES
      12 n           -1.6030    -0.5690     0.1000 n             1 RES
      13 c            2.8170     1.3450     0.1420 c             1 RES
      14 c            2.9080    -0.0310    -0.0080 c             1 RES
      15 n            1.6460    -0.5780    -0.1010 n             1 RES
      16 c           -4.2010    -0.4690     0.0680 c             1 RES
      17 c           -5.0930     0.5970    -0.0520 c             1 RES
      18 s           -4.3040     2.1600    -0.2290 s             1 RES
      19 c            4.2440    -0.4930    -0.0680 c             1 RES
      20 c            5.1430     0.5680     0.0540 c             1 RES
      21 s            4.3620     2.1340     0.2350 s             1 RES
      22 c           -6.4420     0.2130    -0.0210 c             1 RES
      23 c           -6.5710    -1.1770     0.1360 c             1 RES
      24 s           -4.9990    -1.9820     0.2310 s             1 RES
      25 c            6.4890     0.1760     0.0220 c             1 RES
      26 c            6.6100    -1.2150    -0.1380 c             1 RES
      27 s            5.0340    -2.0100    -0.2350 s             1 RES
      28 c           -7.8570    -1.7740     0.1890 c             1 RES
      29 c           -8.3210    -3.0550     0.3370 c             1 RES
      30 c            7.8930    -1.8190    -0.1930 c             1 RES
      31 c            8.3500    -3.1010    -0.3430 c             1 RES
      32 c           -1.3830    -1.8870     0.6770 c             1 RES
      33 c            1.4180    -1.8930    -0.6800 c             1 RES
      34 c            7.6380     1.1350     0.1430 c             1 RES
      35 c           -7.5860     1.1790    -0.1400 c             1 RES
      36 c           -9.7310    -3.4670     0.3560 c             1 RES
      37 c           -9.7520    -4.9390     0.5700 c             1 RES
      38 c           -8.4370    -5.4000     0.6670 c             1 RES
      39 c           -7.4970    -4.2670     0.5230 c             1 RES
      40 c            9.7570    -3.5210    -0.3640 c             1 RES
      41 c            9.7700    -4.9930    -0.5810 c             1 RES
      42 c            8.4520    -5.4470    -0.6790 c             1 RES
      43 c            7.5180    -4.3080    -0.5320 c             1 RES
      44 c           -8.1160    -6.7320     0.8680 c             1 RES
      45 c           -9.1650    -7.6260     0.9730 c             1 RES
      46 c          -10.4890    -7.1820     0.8780 c             1 RES
      47 c          -10.8060    -5.8490     0.6770 c             1 RES
      48 c            8.1230    -6.7770    -0.8830 c             1 RES
      49 c            9.1670    -7.6760    -0.9910 c             1 RES
      50 c           10.4930    -7.2400    -0.8950 c             1 RES
      51 c           10.8180    -5.9090    -0.6900 c             1 RES
      52 o           -6.2820    -4.3500     0.5570 o             1 RES
      53 o            6.3030    -4.3840    -0.5670 o             1 RES
      54 f          -11.4610    -8.0830     0.9850 f             1 RES
      55 f           -8.9410    -8.9220     1.1670 f             1 RES
      56 f            8.9360    -8.9700    -1.1880 f             1 RES
      57 f           11.4610    -8.1460    -1.0050 f             1 RES
      58 c          -10.8500    -2.6890     0.2030 c             1 RES
      59 c          -12.1800    -3.2160     0.2390 c             1 RES
      60 n          -13.2700    -3.6130     0.2630 n             1 RES
      61 c          -10.8190    -1.2750    -0.0110 c             1 RES
      62 n          -10.8230    -0.1270    -0.1840 n             1 RES
      63 c           10.8810    -2.7510    -0.2090 c             1 RES
      64 c           10.8580    -1.3370     0.0080 c             1 RES
      65 n           10.8680    -0.1900     0.1850 n             1 RES
      66 c           12.2070    -3.2850    -0.2460 c             1 RES
      67 n           13.2950    -3.6890    -0.2710 n             1 RES
      68 h           -8.6260    -1.0180     0.0870 h             1 RES
      69 h            8.6660    -1.0670    -0.0890 h             1 RES
      70 h           -0.3320    -2.1580     0.5780 h             1 RES
      71 h           -2.0070    -2.6500     0.2040 h             1 RES
      72 h            0.3950    -2.2100    -0.4780 h             1 RES
      73 h            2.1180    -2.6380    -0.2930 h             1 RES
      74 h            8.2740     1.1190    -0.7470 h             1 RES
      75 h            8.2770     0.8940     0.9980 h             1 RES
      76 h           -8.2210     1.1640     0.7500 h             1 RES
      77 h           -8.2250     0.9440    -0.9950 h             1 RES
      78 h           -7.0860    -7.0620     0.9400 h             1 RES
      79 h          -11.8500    -5.5780     0.6110 h             1 RES
      80 h            7.0910    -7.1000    -0.9560 h             1 RES
      81 h           11.8640    -5.6440    -0.6240 h             1 RES
      82 c           -1.7160    -1.8360     2.1790 c             1 RES
      83 h           -1.7710    -0.8170     2.4980 h             1 RES
      84 c           -0.6150    -2.5640     2.9740 c             1 RES
      85 h           -0.5050    -3.5600     2.6000 h             1 RES
      86 h            0.3100    -2.0380     2.8650 h             1 RES
      87 c           -1.0040    -2.6140     4.4630 c             1 RES
      88 h           -1.2260    -1.6260     4.8070 h             1 RES
      89 h           -1.8670    -3.2360     4.5850 h             1 RES
      90 c            0.1660    -3.1930     5.2800 c             1 RES
      91 h            0.4000    -4.1730     4.9220 h             1 RES
      92 h            1.0220    -2.5600     5.1740 h             1 RES
      93 c           -0.2350    -3.2700     6.7650 c             1 RES
      94 h           -1.0400    -3.9640     6.8820 h             1 RES
      95 h            0.6040    -3.5970     7.3440 h             1 RES
      96 h           -0.5460    -2.3030     7.1020 h             1 RES
      97 c            1.5880    -1.8020    -2.2080 c             1 RES
      98 h            1.5690    -0.7750    -2.5080 h             1 RES
      99 c            0.4390    -2.5600    -2.8990 c             1 RES
     100 h            0.4320    -3.5770    -2.5660 h             1 RES
     101 h           -0.4930    -2.0970    -2.6510 h             1 RES
     102 c            0.6430    -2.5210    -4.4250 c             1 RES
     103 h            0.7750    -1.5070    -4.7410 h             1 RES
     104 h            1.5100    -3.0910    -4.6840 h             1 RES
     105 c           -0.5920    -3.1200    -5.1230 c             1 RES
     106 h           -0.7380    -4.1260    -4.7890 h             1 RES
     107 h           -1.4560    -2.5360    -4.8820 h             1 RES
     108 c           -0.3750    -3.1110    -6.6470 c             1 RES
     109 h            0.4380    -3.7600    -6.8960 h             1 RES
     110 h           -1.2640    -3.4510    -7.1360 h             1 RES
     111 h           -0.1490    -2.1160    -6.9690 h             1 RES
     112 c           -3.0700    -2.5260     2.4290 c             1 RES
     113 h           -3.5010    -2.1490     3.3330 h             1 RES
     114 h           -3.7280    -2.3270     1.6090 h             1 RES
     115 c           -2.8560    -4.0460     2.5570 c             1 RES
     116 h           -2.9210    -4.3300     3.5870 h             1 RES
     117 h           -3.6080    -4.5610     1.9970 h             1 RES
     118 h           -1.8890    -4.3030     2.1780 h             1 RES
     119 c            2.9340    -2.4300    -2.6140 c             1 RES
     120 h            3.2530    -2.0180    -3.5480 h             1 RES
     121 h            3.6670    -2.2190    -1.8630 h             1 RES
     122 c            2.7680    -3.9540    -2.7550 c             1 RES
     123 h            2.7360    -4.2150    -3.7920 h             1 RES
     124 h            3.5950    -4.4480    -2.2890 h             1 RES
     125 h            1.8580    -4.2590    -2.2820 h             1 RES
     126 c            7.1260     2.5750     0.3300 c             1 RES
     127 h            6.5440     2.8600    -0.5210 h             1 RES
     128 h            6.5200     2.6270     1.2110 h             1 RES
     129 c            8.3250     3.5320     0.4750 c             1 RES
     130 h            8.8980     3.2580     1.3360 h             1 RES
     131 h            8.9400     3.4670    -0.3980 h             1 RES
     132 c            7.8130     4.9750     0.6370 c             1 RES
     133 h            7.2430     5.2500    -0.2260 h             1 RES
     134 h            7.1950     5.0390     1.5080 h             1 RES
     135 c            9.0120     5.9310     0.7860 c             1 RES
     136 h            9.5820     5.6550     1.6480 h             1 RES
     137 h            9.6290     5.8670    -0.0860 h             1 RES
     138 c            8.5000     7.3740     0.9480 c             1 RES
     139 h            7.8810     7.4370     1.8190 h             1 RES
     140 h            7.9310     7.6500     0.0850 h             1 RES
     141 c            9.6980     8.3290     1.1010 c             1 RES
     142 h           10.2670     8.0530     1.9640 h             1 RES
     143 h           10.3170     8.2660     0.2300 h             1 RES
     144 c            9.1870     9.7730     1.2630 c             1 RES
     145 h            8.5670     9.8360     2.1340 h             1 RES
     146 h            8.6180    10.0490     0.4000 h             1 RES
     147 c           10.3850    10.7280     1.4150 c             1 RES
     148 h           10.9540    10.4520     2.2780 h             1 RES
     149 h           11.0040    10.6650     0.5450 h             1 RES
     150 c            9.8730    12.1710     1.5780 c             1 RES
     151 h            9.2550    12.2340     2.4490 h             1 RES
     152 h            9.3040    12.4480     0.7160 h             1 RES
     153 c           11.0720    13.1270     1.7300 c             1 RES
     154 h           10.7160    14.1300     1.8430 h             1 RES
     155 h           11.6410    12.8510     2.5930 h             1 RES
     156 h           11.6900    13.0640     0.8590 h             1 RES
     157 c           -7.0650     2.6170    -0.3230 c             1 RES
     158 h           -6.4810     2.8960     0.5280 h             1 RES
     159 h           -6.4590     2.6670    -1.2040 h             1 RES
     160 c           -8.2580     3.5800    -0.4660 c             1 RES
     161 h           -8.8330     3.3110    -1.3270 h             1 RES
     162 h           -8.8730     3.5170     0.4080 h             1 RES
     163 c           -7.7380     5.0210    -0.6250 c             1 RES
     164 h           -7.1660     5.2910     0.2370 h             1 RES
     165 h           -7.1210     5.0830    -1.4970 h             1 RES
     166 c           -8.9310     5.9840    -0.7720 c             1 RES
     167 h           -9.5490     5.9210     0.0990 h             1 RES
     168 h           -9.5030     5.7140    -1.6360 h             1 RES
     169 c           -8.4110     7.4240    -0.9310 c             1 RES
     170 h           -7.8420     7.6960    -0.0670 h             1 RES
     171 h           -7.7910     7.4860    -1.8010 h             1 RES
     172 c           -9.6040     8.3870    -1.0830 c             1 RES
     173 h          -10.1740     8.1150    -1.9480 h             1 RES
     174 h          -10.2250     8.3260    -0.2140 h             1 RES
     175 c           -9.0840     9.8270    -1.2430 c             1 RES
     176 h           -8.5160    10.0990    -0.3790 h             1 RES
     177 h           -8.4630     9.8880    -2.1120 h             1 RES
     178 c          -10.2770    10.7890    -1.3970 c             1 RES
     179 h          -10.8460    10.5170    -2.2610 h             1 RES
     180 h          -10.8980    10.7290    -0.5280 h             1 RES
     181 c           -9.7570    12.2300    -1.5570 c             1 RES
     182 h           -9.1890    12.5020    -0.6920 h             1 RES
     183 h           -9.1360    12.2900    -2.4260 h             1 RES
     184 c          -10.9500    13.1920    -1.7110 c             1 RES
     185 h          -10.5890    14.1930    -1.8230 h             1 RES
     186 h          -11.5180    12.9200    -2.5760 h             1 RES
     187 h          -11.5710    13.1320    -0.8420 h             1 RES
@<TRIPOS>BOND
       1        2        1 1
       2       10        1 1
       3        6        1 1
       4        3        2 1
       5       12        2 1
       6       11       10 1
       7       18       10 1
       8        5        6 1
       9        7        6 1
      10        4        3 1
      11       15        3 1
      12       13        4 1
      13        5        4 1
      14       14       13 1
      15       21       13 1
      16        9        5 1
      17       16       11 1
      18       12       11 1
      19       17       16 1
      20       24       16 1
      21       19       14 1
      22       15       14 1
      23       20       19 1
      24       27       19 1
      25       22       17 1
      26       18       17 1
      27       23       22 1
      28       35       22 1
      29       25       20 1
      30       21       20 1
      31       26       25 1
      32       34       25 1
      33       28       23 1
      34       24       23 1
      35      157       35 1
      36       77       35 1
      37       76       35 1
      38       29       28 1
      39       68       28 1
      40       30       26 1
      41       27       26 1
      42      126       34 1
      43       74       34 1
      44       75       34 1
      45       31       30 1
      46       69       30 1
      47       36       29 1
      48       39       29 1
      49       58       36 1
      50       37       36 1
      51       38       39 1
      52       52       39 1
      53       40       31 1
      54       43       31 1
      55       63       40 1
      56       41       40 1
      57       42       43 1
      58       53       43 1
      59       82       32 1
      60       70       32 1
      61       71       32 1
      62       12       32 1
      63      112       82 1
      64       84       82 1
      65       83       82 1
      66       97       33 1
      67       72       33 1
      68       73       33 1
      69       15       33 1
      70      119       97 1
      71       99       97 1
      72       98       97 1
      73      129      126 1
      74      127      126 1
      75      128      126 1
      76      160      157 1
      77      158      157 1
      78      159      157 1
      79       61       58 1
      80       59       58 1
      81       47       37 1
      82       38       37 1
      83       46       47 1
      84       79       47 1
      85       44       38 1
      86       45       44 1
      87       78       44 1
      88       66       63 1
      89       64       63 1
      90       51       41 1
      91       42       41 1
      92       50       51 1
      93       81       51 1
      94       48       42 1
      95       49       48 1
      96       80       48 1
      97       46       45 1
      98       55       45 1
      99       54       46 1
     100       50       49 1
     101       56       49 1
     102       57       50 1
     103       62       61 1
     104       60       59 1
     105       67       66 1
     106       65       64 1
     107      115      112 1
     108      114      112 1
     109      113      112 1
     110       87       84 1
     111       85       84 1
     112       86       84 1
     113       90       87 1
     114       88       87 1
     115       89       87 1
     116       93       90 1
     117       91       90 1
     118       92       90 1
     119       94       93 1
     120       96       93 1
     121       95       93 1
     122      122      119 1
     123      120      119 1
     124      121      119 1
     125      102       99 1
     126      101       99 1
     127      100       99 1
     128      105      102 1
     129      104      102 1
     130      103      102 1
     131      108      105 1
     132      106      105 1
     133      107      105 1
     134      109      108 1
     135      111      108 1
     136      110      108 1
     137      117      115 1
     138      118      115 1
     139      116      115 1
     140      123      122 1
     141      125      122 1
     142      124      122 1
     143      132      129 1
     144      131      129 1
     145      130      129 1
     146      135      132 1
     147      134      132 1
     148      133      132 1
     149      138      135 1
     150      136      135 1
     151      137      135 1
     152      141      138 1
     153      140      138 1
     154      139      138 1
     155      144      141 1
     156      142      141 1
     157      143      141 1
     158      147      144 1
     159      146      144 1
     160      145      144 1
     161      150      147 1
     162      149      147 1
     163      148      147 1
     164      153      150 1
     165      152      150 1
     166      151      150 1
     167      156      153 1
     168      155      153 1
     169      154      153 1
     170      163      160 1
     171      161      160 1
     172      162      160 1
     173      166      163 1
     174      164      163 1
     175      165      163 1
     176      169      166 1
     177      167      166 1
     178      168      166 1
     179      172      169 1
     180      170      169 1
     181      171      169 1
     182      175      172 1
     183      174      172 1
     184      173      172 1
     185      178      175 1
     186      176      175 1
     187      177      175 1
     188      181      178 1
     189      179      178 1
     190      180      178 1
     191      184      181 1
     192      183      181 1
     193      182      181 1
     194      187      184 1
     195      186      184 1
     196      185      184 1
     197        8        9 1
     198        8        7 1
@<TRIPOS>SUBSTRUCTURE
       1 RES             1 RESIDUE    0 **** ROOT      0
