@<TRIPOS>MOLECULE
Compound
 187 198 0 0 0
SMALL
GASTEIGER

@<TRIPOS>ATOM
      1 C          -1.3900    1.6860   -0.1240 C.ar    1  UNL1        0.0444
      2 C          -0.6940    0.4690   -0.0040 C.ar    1  UNL1        0.0773
      3 C           0.7430    0.4650    0.0060 C.ar    1  UNL1        0.0773
      4 C           1.4460    1.6780    0.1290 C.ar    1  UNL1        0.0444
      5 C           0.7450    2.9270    0.0990 C.ar    1  UNL1        0.1108
      6 C          -0.6830    2.9320   -0.0910 C.ar    1  UNL1        0.1108
      7 N          -1.2070    4.1430   -0.1590 N.ar    1  UNL1       -0.1901
      8 S           0.0380    5.2000    0.0060 S.2     1  UNL1        0.1165
      9 N           1.2770    4.1350    0.1690 N.ar    1  UNL1       -0.1901
     10 C          -2.7630    1.3620   -0.1380 C.ar    1  UNL1        0.0487
     11 C          -2.8620   -0.0140    0.0080 C.ar    1  UNL1        0.0719
     12 N          -1.6030   -0.5690    0.1000 N.ar    1  UNL1       -0.3365
     13 C           2.8170    1.3450    0.1420 C.ar    1  UNL1        0.0487
     14 C           2.9080   -0.0310   -0.0080 C.ar    1  UNL1        0.0719
     15 N           1.6460   -0.5780   -0.1010 N.ar    1  UNL1       -0.3365
     16 C          -4.2010   -0.4690    0.0680 C.ar    1  UNL1        0.0513
     17 C          -5.0930    0.5970   -0.0520 C.ar    1  UNL1        0.0328
     18 S          -4.3040    2.1600   -0.2290 S.2     1  UNL1       -0.0851
     19 C           4.2440   -0.4930   -0.0680 C.ar    1  UNL1        0.0513
     20 C           5.1430    0.5680    0.0540 C.ar    1  UNL1        0.0328
     21 S           4.3620    2.1340    0.2350 S.2     1  UNL1       -0.0851
     22 C          -6.4420    0.2130   -0.0210 C.ar    1  UNL1       -0.0188
     23 C          -6.5710   -1.1770    0.1360 C.ar    1  UNL1        0.0178
     24 S          -4.9990   -1.9820    0.2310 S.2     1  UNL1       -0.0859
     25 C           6.4890    0.1760    0.0220 C.ar    1  UNL1       -0.0188
     26 C           6.6100   -1.2150   -0.1380 C.ar    1  UNL1        0.0178
     27 S           5.0340   -2.0100   -0.2350 S.2     1  UNL1       -0.0859
     28 C          -7.8570   -1.7740    0.1890 C.2     1  UNL1       -0.0362
     29 C          -8.3210   -3.0550    0.3370 C.2     1  UNL1        0.0330
     30 C           7.8930   -1.8190   -0.1930 C.2     1  UNL1       -0.0362
     31 C           8.3500   -3.1010   -0.3430 C.2     1  UNL1        0.0330
     32 C          -1.3830   -1.8870    0.6770 C.3     1  UNL1        0.0268
     33 C           1.4180   -1.8930   -0.6800 C.3     1  UNL1        0.0268
     34 C           7.6380    1.1350    0.1430 C.3     1  UNL1       -0.0255
     35 C          -7.5860    1.1790   -0.1400 C.3     1  UNL1       -0.0255
     36 C          -9.7310   -3.4670    0.3560 C.2     1  UNL1        0.0215
     37 C          -9.7520   -4.9390    0.5700 C.ar    1  UNL1       -0.0016
     38 C          -8.4370   -5.4000    0.6670 C.ar    1  UNL1        0.0329
     39 C          -7.4970   -4.2670    0.5230 C.2     1  UNL1        0.1945
     40 C           9.7570   -3.5210   -0.3640 C.2     1  UNL1        0.0215
     41 C           9.7700   -4.9930   -0.5810 C.ar    1  UNL1       -0.0016
     42 C           8.4520   -5.4470   -0.6790 C.ar    1  UNL1        0.0329
     43 C           7.5180   -4.3080   -0.5320 C.2     1  UNL1        0.1945
     44 C          -8.1160   -6.7320    0.8680 C.ar    1  UNL1       -0.0122
     45 C          -9.1650   -7.6260    0.9730 C.ar    1  UNL1        0.1591
     46 C         -10.4890   -7.1820    0.8780 C.ar    1  UNL1        0.1590
     47 C         -10.8060   -5.8490    0.6770 C.ar    1  UNL1       -0.0151
     48 C           8.1230   -6.7770   -0.8830 C.ar    1  UNL1       -0.0122
     49 C           9.1670   -7.6760   -0.9910 C.ar    1  UNL1        0.1591
     50 C          10.4930   -7.2400   -0.8950 C.ar    1  UNL1        0.1590
     51 C          10.8180   -5.9090   -0.6900 C.ar    1  UNL1       -0.0151
     52 O          -6.2820   -4.3500    0.5570 O.2     1  UNL1       -0.2866
     53 O           6.3030   -4.3840   -0.5670 O.2     1  UNL1       -0.2866
     54 F         -11.4610   -8.0830    0.9850 F       1  UNL1       -0.2025
     55 F          -8.9410   -8.9220    1.1670 F       1  UNL1       -0.2025
     56 F           8.9360   -8.9700   -1.1880 F       1  UNL1       -0.2025
     57 F          11.4610   -8.1460   -1.0050 F       1  UNL1       -0.2025
     58 C         -10.8500   -2.6890    0.2030 C.2     1  UNL1        0.1365
     59 C         -12.1800   -3.2160    0.2390 C.1     1  UNL1        0.1108
     60 N         -13.2700   -3.6130    0.2630 N.1     1  UNL1       -0.1901
     61 C         -10.8190   -1.2750   -0.0110 C.1     1  UNL1        0.1108
     62 N         -10.8230   -0.1270   -0.1840 N.1     1  UNL1       -0.1901
     63 C          10.8810   -2.7510   -0.2090 C.2     1  UNL1        0.1365
     64 C          10.8580   -1.3370    0.0080 C.1     1  UNL1        0.1108
     65 N          10.8680   -0.1900    0.1850 N.1     1  UNL1       -0.1901
     66 C          12.2070   -3.2850   -0.2460 C.1     1  UNL1        0.1108
     67 N          13.2950   -3.6890   -0.2710 N.1     1  UNL1       -0.1901
     68 H          -8.6260   -1.0180    0.0870 H       1  UNL1        0.0636
     69 H           8.6660   -1.0670   -0.0890 H       1  UNL1        0.0636
     70 H          -0.3320   -2.1580    0.5780 H       1  UNL1        0.0495
     71 H          -2.0070   -2.6500    0.2040 H       1  UNL1        0.0495
     72 H           0.3950   -2.2100   -0.4780 H       1  UNL1        0.0495
     73 H           2.1180   -2.6380   -0.2930 H       1  UNL1        0.0495
     74 H           8.2740    1.1190   -0.7470 H       1  UNL1        0.0314
     75 H           8.2770    0.8940    0.9980 H       1  UNL1        0.0314
     76 H          -8.2210    1.1640    0.7500 H       1  UNL1        0.0314
     77 H          -8.2250    0.9440   -0.9950 H       1  UNL1        0.0314
     78 H          -7.0860   -7.0620    0.9400 H       1  UNL1        0.0654
     79 H         -11.8500   -5.5780    0.6110 H       1  UNL1        0.0653
     80 H           7.0910   -7.1000   -0.9560 H       1  UNL1        0.0654
     81 H          11.8640   -5.6440   -0.6240 H       1  UNL1        0.0653
     82 C          -1.7160   -1.8360    2.1790 C.3     1  UNL1       -0.0233
     83 H          -1.7710   -0.8170    2.4980 H       1  UNL1        0.0318
     84 C          -0.6150   -2.5640    2.9740 C.3     1  UNL1       -0.0486
     85 H          -0.5050   -3.5600    2.6000 H       1  UNL1        0.0268
     86 H           0.3100   -2.0380    2.8650 H       1  UNL1        0.0268
     87 C          -1.0040   -2.6140    4.4630 C.3     1  UNL1       -0.0530
     88 H          -1.2260   -1.6260    4.8070 H       1  UNL1        0.0265
     89 H          -1.8670   -3.2360    4.5850 H       1  UNL1        0.0265
     90 C           0.1660   -3.1930    5.2800 C.3     1  UNL1       -0.0559
     91 H           0.4000   -4.1730    4.9220 H       1  UNL1        0.0263
     92 H           1.0220   -2.5600    5.1740 H       1  UNL1        0.0263
     93 C          -0.2350   -3.2700    6.7650 C.3     1  UNL1       -0.0653
     94 H          -1.0400   -3.9640    6.8820 H       1  UNL1        0.0230
     95 H           0.6040   -3.5970    7.3440 H       1  UNL1        0.0230
     96 H          -0.5460   -2.3030    7.1020 H       1  UNL1        0.0230
     97 C           1.5880   -1.8020   -2.2080 C.3     1  UNL1       -0.0233
     98 H           1.5690   -0.7750   -2.5080 H       1  UNL1        0.0318
     99 C           0.4390   -2.5600   -2.8990 C.3     1  UNL1       -0.0486
    100 H           0.4320   -3.5770   -2.5660 H       1  UNL1        0.0268
    101 H          -0.4930   -2.0970   -2.6510 H       1  UNL1        0.0268
    102 C           0.6430   -2.5210   -4.4250 C.3     1  UNL1       -0.0530
    103 H           0.7750   -1.5070   -4.7410 H       1  UNL1        0.0265
    104 H           1.5100   -3.0910   -4.6840 H       1  UNL1        0.0265
    105 C          -0.5920   -3.1200   -5.1230 C.3     1  UNL1       -0.0559
    106 H          -0.7380   -4.1260   -4.7890 H       1  UNL1        0.0263
    107 H          -1.4560   -2.5360   -4.8820 H       1  UNL1        0.0263
    108 C          -0.3750   -3.1110   -6.6470 C.3     1  UNL1       -0.0653
    109 H           0.4380   -3.7600   -6.8960 H       1  UNL1        0.0230
    110 H          -1.2640   -3.4510   -7.1360 H       1  UNL1        0.0230
    111 H          -0.1490   -2.1160   -6.9690 H       1  UNL1        0.0230
    112 C          -3.0700   -2.5260    2.4290 C.3     1  UNL1       -0.0514
    113 H          -3.5010   -2.1490    3.3330 H       1  UNL1        0.0266
    114 H          -3.7280   -2.3270    1.6090 H       1  UNL1        0.0266
    115 C          -2.8560   -4.0460    2.5570 C.3     1  UNL1       -0.0650
    116 H          -2.9210   -4.3300    3.5870 H       1  UNL1        0.0230
    117 H          -3.6080   -4.5610    1.9970 H       1  UNL1        0.0230
    118 H          -1.8890   -4.3030    2.1780 H       1  UNL1        0.0230
    119 C           2.9340   -2.4300   -2.6140 C.3     1  UNL1       -0.0514
    120 H           3.2530   -2.0180   -3.5480 H       1  UNL1        0.0266
    121 H           3.6670   -2.2190   -1.8630 H       1  UNL1        0.0266
    122 C           2.7680   -3.9540   -2.7550 C.3     1  UNL1       -0.0650
    123 H           2.7360   -4.2150   -3.7920 H       1  UNL1        0.0230
    124 H           3.5950   -4.4480   -2.2890 H       1  UNL1        0.0230
    125 H           1.8580   -4.2590   -2.2820 H       1  UNL1        0.0230
    126 C           7.1260    2.5750    0.3300 C.3     1  UNL1       -0.0490
    127 H           6.5440    2.8600   -0.5210 H       1  UNL1        0.0268
    128 H           6.5200    2.6270    1.2110 H       1  UNL1        0.0268
    129 C           8.3250    3.5320    0.4750 C.3     1  UNL1       -0.0528
    130 H           8.8980    3.2580    1.3360 H       1  UNL1        0.0265
    131 H           8.9400    3.4670   -0.3980 H       1  UNL1        0.0265
    132 C           7.8130    4.9750    0.6370 C.3     1  UNL1       -0.0530
    133 H           7.2430    5.2500   -0.2260 H       1  UNL1        0.0265
    134 H           7.1950    5.0390    1.5080 H       1  UNL1        0.0265
    135 C           9.0120    5.9310    0.7860 C.3     1  UNL1       -0.0531
    136 H           9.5820    5.6550    1.6480 H       1  UNL1        0.0265
    137 H           9.6290    5.8670   -0.0860 H       1  UNL1        0.0265
    138 C           8.5000    7.3740    0.9480 C.3     1  UNL1       -0.0531
    139 H           7.8810    7.4370    1.8190 H       1  UNL1        0.0265
    140 H           7.9310    7.6500    0.0850 H       1  UNL1        0.0265
    141 C           9.6980    8.3290    1.1010 C.3     1  UNL1       -0.0531
    142 H          10.2670    8.0530    1.9640 H       1  UNL1        0.0265
    143 H          10.3170    8.2660    0.2300 H       1  UNL1        0.0265
    144 C           9.1870    9.7730    1.2630 C.3     1  UNL1       -0.0531
    145 H           8.5670    9.8360    2.1340 H       1  UNL1        0.0265
    146 H           8.6180   10.0490    0.4000 H       1  UNL1        0.0265
    147 C          10.3850   10.7280    1.4150 C.3     1  UNL1       -0.0533
    148 H          10.9540   10.4520    2.2780 H       1  UNL1        0.0265
    149 H          11.0040   10.6650    0.5450 H       1  UNL1        0.0265
    150 C           9.8730   12.1710    1.5780 C.3     1  UNL1       -0.0559
    151 H           9.2550   12.2340    2.4490 H       1  UNL1        0.0263
    152 H           9.3040   12.4480    0.7160 H       1  UNL1        0.0263
    153 C          11.0720   13.1270    1.7300 C.3     1  UNL1       -0.0653
    154 H          10.7160   14.1300    1.8430 H       1  UNL1        0.0230
    155 H          11.6410   12.8510    2.5930 H       1  UNL1        0.0230
    156 H          11.6900   13.0640    0.8590 H       1  UNL1        0.0230
    157 C          -7.0650    2.6170   -0.3230 C.3     1  UNL1       -0.0490
    158 H          -6.4810    2.8960    0.5280 H       1  UNL1        0.0268
    159 H          -6.4590    2.6670   -1.2040 H       1  UNL1        0.0268
    160 C          -8.2580    3.5800   -0.4660 C.3     1  UNL1       -0.0528
    161 H          -8.8330    3.3110   -1.3270 H       1  UNL1        0.0265
    162 H          -8.8730    3.5170    0.4080 H       1  UNL1        0.0265
    163 C          -7.7380    5.0210   -0.6250 C.3     1  UNL1       -0.0530
    164 H          -7.1660    5.2910    0.2370 H       1  UNL1        0.0265
    165 H          -7.1210    5.0830   -1.4970 H       1  UNL1        0.0265
    166 C          -8.9310    5.9840   -0.7720 C.3     1  UNL1       -0.0531
    167 H          -9.5490    5.9210    0.0990 H       1  UNL1        0.0265
    168 H          -9.5030    5.7140   -1.6360 H       1  UNL1        0.0265
    169 C          -8.4110    7.4240   -0.9310 C.3     1  UNL1       -0.0531
    170 H          -7.8420    7.6960   -0.0670 H       1  UNL1        0.0265
    171 H          -7.7910    7.4860   -1.8010 H       1  UNL1        0.0265
    172 C          -9.6040    8.3870   -1.0830 C.3     1  UNL1       -0.0531
    173 H         -10.1740    8.1150   -1.9480 H       1  UNL1        0.0265
    174 H         -10.2250    8.3260   -0.2140 H       1  UNL1        0.0265
    175 C          -9.0840    9.8270   -1.2430 C.3     1  UNL1       -0.0531
    176 H          -8.5160   10.0990   -0.3790 H       1  UNL1        0.0265
    177 H          -8.4630    9.8880   -2.1120 H       1  UNL1        0.0265
    178 C         -10.2770   10.7890   -1.3970 C.3     1  UNL1       -0.0533
    179 H         -10.8460   10.5170   -2.2610 H       1  UNL1        0.0265
    180 H         -10.8980   10.7290   -0.5280 H       1  UNL1        0.0265
    181 C          -9.7570   12.2300   -1.5570 C.3     1  UNL1       -0.0559
    182 H          -9.1890   12.5020   -0.6920 H       1  UNL1        0.0263
    183 H          -9.1360   12.2900   -2.4260 H       1  UNL1        0.0263
    184 C         -10.9500   13.1920   -1.7110 C.3     1  UNL1       -0.0653
    185 H         -10.5890   14.1930   -1.8230 H       1  UNL1        0.0230
    186 H         -11.5180   12.9200   -2.5760 H       1  UNL1        0.0230
    187 H         -11.5710   13.1320   -0.8420 H       1  UNL1        0.0230
@<TRIPOS>BOND
     1     2     1   ar
     2    10     1   ar
     3     6     1   ar
     4     3     2   ar
     5    12     2   ar
     6    11    10   ar
     7    18    10   ar
     8     5     6   ar
     9     7     6   ar
    10     4     3   ar
    11    15     3   ar
    12    13     4   ar
    13     5     4   ar
    14    14    13   ar
    15    21    13   ar
    16     9     5   ar
    17    16    11   ar
    18    12    11   ar
    19    17    16   ar
    20    24    16   ar
    21    19    14   ar
    22    15    14   ar
    23    20    19   ar
    24    27    19   ar
    25    22    17   ar
    26    18    17   ar
    27    23    22   ar
    28    35    22    1
    29    25    20   ar
    30    21    20   ar
    31    26    25   ar
    32    34    25    1
    33    28    23    1
    34    24    23   ar
    35   157    35    1
    36    77    35    1
    37    76    35    1
    38    29    28    2
    39    68    28    1
    40    30    26    1
    41    27    26   ar
    42   126    34    1
    43    74    34    1
    44    75    34    1
    45    31    30    2
    46    69    30    1
    47    36    29    1
    48    39    29    1
    49    58    36    2
    50    37    36    1
    51    38    39    1
    52    52    39    2
    53    40    31    1
    54    43    31    1
    55    63    40    2
    56    41    40    1
    57    42    43    1
    58    53    43    2
    59    82    32    1
    60    70    32    1
    61    71    32    1
    62    12    32    1
    63   112    82    1
    64    84    82    1
    65    83    82    1
    66    97    33    1
    67    72    33    1
    68    73    33    1
    69    15    33    1
    70   119    97    1
    71    99    97    1
    72    98    97    1
    73   129   126    1
    74   127   126    1
    75   128   126    1
    76   160   157    1
    77   158   157    1
    78   159   157    1
    79    61    58    1
    80    59    58    1
    81    47    37   ar
    82    38    37   ar
    83    46    47   ar
    84    79    47    1
    85    44    38   ar
    86    45    44   ar
    87    78    44    1
    88    66    63    1
    89    64    63    1
    90    51    41   ar
    91    42    41   ar
    92    50    51   ar
    93    81    51    1
    94    48    42   ar
    95    49    48   ar
    96    80    48    1
    97    46    45   ar
    98    55    45    1
    99    54    46    1
   100    50    49   ar
   101    56    49    1
   102    57    50    1
   103    62    61    3
   104    60    59    3
   105    67    66    3
   106    65    64    3
   107   115   112    1
   108   114   112    1
   109   113   112    1
   110    87    84    1
   111    85    84    1
   112    86    84    1
   113    90    87    1
   114    88    87    1
   115    89    87    1
   116    93    90    1
   117    91    90    1
   118    92    90    1
   119    94    93    1
   120    96    93    1
   121    95    93    1
   122   122   119    1
   123   120   119    1
   124   121   119    1
   125   102    99    1
   126   101    99    1
   127   100    99    1
   128   105   102    1
   129   104   102    1
   130   103   102    1
   131   108   105    1
   132   106   105    1
   133   107   105    1
   134   109   108    1
   135   111   108    1
   136   110   108    1
   137   117   115    1
   138   118   115    1
   139   116   115    1
   140   123   122    1
   141   125   122    1
   142   124   122    1
   143   132   129    1
   144   131   129    1
   145   130   129    1
   146   135   132    1
   147   134   132    1
   148   133   132    1
   149   138   135    1
   150   136   135    1
   151   137   135    1
   152   141   138    1
   153   140   138    1
   154   139   138    1
   155   144   141    1
   156   142   141    1
   157   143   141    1
   158   147   144    1
   159   146   144    1
   160   145   144    1
   161   150   147    1
   162   149   147    1
   163   148   147    1
   164   153   150    1
   165   152   150    1
   166   151   150    1
   167   156   153    1
   168   155   153    1
   169   154   153    1
   170   163   160    1
   171   161   160    1
   172   162   160    1
   173   166   163    1
   174   164   163    1
   175   165   163    1
   176   169   166    1
   177   167   166    1
   178   168   166    1
   179   172   169    1
   180   170   169    1
   181   171   169    1
   182   175   172    1
   183   174   172    1
   184   173   172    1
   185   178   175    1
   186   176   175    1
   187   177   175    1
   188   181   178    1
   189   179   178    1
   190   180   178    1
   191   184   181    1
   192   183   181    1
   193   182   181    1
   194   187   184    1
   195   186   184    1
   196   185   184    1
   197     8     9   ar
   198     8     7   ar
